Pcp_File_Version=2
*** BLOCK H: DOMAIN INFORMATION ******************************************************
Number of Solutes   Equilibrium
        1    1
Nodal Information
         n   Code          h              Q    M     Beta      Axz      Bxz      Dxz        Temp   Conc(1..NS)   
         1     -6         500             0    1        0        1        1        1          20             0 
         2      0         400             0    1        0        1        1        1          20 {Conc:>13} 
         3      0         400             0    1        0        1        1        1          20 {Conc:>13} 
         4     -6     497.817             0    1        0        1        1        1          20             0 
         5      0         498             0    1        0        1        1        1          20             0 
         6      0         496             0    1        0        1        1        1          20             0 
         7      0         494             0    1        0        1        1        1          20             0 
         8      0         492             0    1        0        1        1        1          20             0 
         9      0         490             0    1        0        1        1        1          20             0 
        10      0         488             0    1        0        1        1        1          20             0 
        11      0         486             0    1        0        1        1        1          20             0 
        12      0         484             0    1        0        1        1        1          20             0 
        13      0         482             0    1        0        1        1        1          20             0 
        14      0         480             0    1        0        1        1        1          20             0 
        15      0         478             0    1        0        1        1        1          20             0 
        16      0         476             0    1        0        1        1        1          20             0 
        17      0         474             0    1        0        1        1        1          20             0 
        18      0         472             0    1        0        1        1        1          20             0 
        19      0         470             0    1        0        1        1        1          20             0 
        20      0         468             0    1        0        1        1        1          20             0 
        21      0         466             0    1        0        1        1        1          20             0 
        22      0         464             0    1        0        1        1        1          20             0 
        23      0         462             0    1        0        1        1        1          20             0 
        24      0         460             0    1        0        1        1        1          20             0 
        25      0         458             0    1        0        1        1        1          20             0 
        26      0         456             0    1        0        1        1        1          20             0 
        27      0         454             0    1        0        1        1        1          20             0 
        28      0         452             0    1        0        1        1        1          20             0 
        29      0         450             0    1        0        1        1        1          20             0 
        30      0         448             0    1        0        1        1        1          20             0 
        31      0         446             0    1        0        1        1        1          20             0 
        32      0         444             0    1        0        1        1        1          20             0 
        33      0         442             0    1        0        1        1        1          20             0 
        34      0         440             0    1        0        1        1        1          20             0 
        35      0         438             0    1        0        1        1        1          20             0 
        36      0         436             0    1        0        1        1        1          20             0 
        37      0         434             0    1        0        1        1        1          20             0 
        38      0         432             0    1        0        1        1        1          20             0 
        39      0         430             0    1        0        1        1        1          20             0 
        40      0         428             0    1        0        1        1        1          20             0 
        41      0         426             0    1        0        1        1        1          20             0 
        42      0         424             0    1        0        1        1        1          20             0 
        43      0         422             0    1        0        1        1        1          20             0 
        44      1 2.98023e-006             0    1        0        1        1        1          20 {Conc:>13} 
        45      1 2.98023e-006             0    1        0        1        1        1          20 {Conc:>13} 
        46      1 2.98023e-006             0    1        0        1        1        1          20 {Conc:>13} 
        47      1 2.98023e-006             0    1        0        1        1        1          20 {Conc:>13} 
        48      1 2.98023e-006             0    1        0        1        1        1          20 {Conc:>13} 
        49      1 2.98023e-006             0    1        0        1        1        1          20 {Conc:>13} 
        50      1 2.98023e-006             0    1        0        1        1        1          20 {Conc:>13} 
        51      1 2.98023e-006             0    1        0        1        1        1          20 {Conc:>13} 
        52      1 2.98023e-006             0    1        0        1        1        1          20 {Conc:>13} 
        53      1 2.98023e-006             0    1        0        1        1        1          20 {Conc:>13} 
        54      1 2.98023e-006             0    1        0        1        1        1          20 {Conc:>13} 
        55      1 2.98023e-006             0    1        0        1        1        1          20 {Conc:>13} 
        56      1 2.98023e-006             0    1        0        1        1        1          20 {Conc:>13} 
        57      1 2.98023e-006             0    1        0        1        1        1          20 {Conc:>13} 
        58      1 2.98023e-006             0    1        0        1        1        1          20 {Conc:>13} 
        59      1 2.98023e-006             0    1        0        1        1        1          20 {Conc:>13} 
        60      1 2.98023e-006             0    1        0        1        1        1          20 {Conc:>13} 
        61      1 2.98023e-006             0    1        0        1        1        1          20 {Conc:>13} 
        62      1 2.98023e-006             0    1        0        1        1        1          20 {Conc:>13} 
        63      1 2.98023e-006             0    1        0        1        1        1          20 {Conc:>13} 
        64      1 2.98023e-006             0    1        0        1        1        1          20 {Conc:>13} 
        65      1 2.98023e-006             0    1        0        1        1        1          20 {Conc:>13} 
        66      1 2.98023e-006             0    1        0        1        1        1          20 {Conc:>13} 
        67      1 2.98023e-006             0    1        0        1        1        1          20 {Conc:>13} 
        68      0     419.817             0    1        0        1        1        1          20             0 
        69      0     421.817             0    1        0        1        1        1          20             0 
        70      0     423.817             0    1        0        1        1        1          20             0 
        71      0     425.817             0    1        0        1        1        1          20             0 
        72      0     427.817             0    1        0        1        1        1          20             0 
        73      0     429.817             0    1        0        1        1        1          20             0 
        74      0     431.817             0    1        0        1        1        1          20             0 
        75      0     433.817             0    1        0        1        1        1          20             0 
        76      0     435.817             0    1        0        1        1        1          20             0 
        77      0     437.817             0    1        0        1        1        1          20             0 
        78      0     439.817             0    1        0        1        1        1          20             0 
        79      0     441.817             0    1        0        1        1        1          20             0 
        80      0     443.817             0    1        0        1        1        1          20             0 
        81      0     445.817             0    1        0        1        1        1          20             0 
        82      0     447.817             0    1        0        1        1        1          20             0 
        83      0     449.817             0    1        0        1        1        1          20             0 
        84      0     451.817             0    1        0        1        1        1          20             0 
        85      0     453.817             0    1        0        1        1        1          20             0 
        86      0     455.817             0    1        0        1        1        1          20             0 
        87      0     457.817             0    1        0        1        1        1          20             0 
        88      0     459.817             0    1        0        1        1        1          20             0 
        89      0     461.817             0    1        0        1        1        1          20             0 
        90      0     463.817             0    1        0        1        1        1          20             0 
        91      0     465.817             0    1        0        1        1        1          20             0 
        92      0     467.817             0    1        0        1        1        1          20             0 
        93      0     469.817             0    1        0        1        1        1          20             0 
        94      0     471.817             0    1        0        1        1        1          20             0 
        95      0     473.817             0    1        0        1        1        1          20             0 
        96      0     475.817             0    1        0        1        1        1          20             0 
        97      0     477.817             0    1        0        1        1        1          20             0 
        98      0     479.817             0    1        0        1        1        1          20             0 
        99      0     481.817             0    1        0        1        1        1          20             0 
       100      0     483.817             0    1        0        1        1        1          20             0 
       101      0     485.817             0    1        0        1        1        1          20             0 
       102      0     487.817             0    1        0        1        1        1          20             0 
       103      0     489.817             0    1        0        1        1        1          20             0 
       104      0     491.817             0    1        0        1        1        1          20             0 
       105      0     493.817             0    1        0        1        1        1          20             0 
       106      0     495.817             0    1        0        1        1        1          20             0 
       107     -6     497.904             0    1        0        1        1        1          20             0 
       108     -6     497.992             0    1        0        1        1        1          20             0 
       109     -6     498.079             0    1        0        1        1        1          20             0 
       110     -6     498.166             0    1        0        1        1        1          20             0 
       111     -6     498.254             0    1        0        1        1        1          20             0 
       112     -6     498.341             0    1        0        1        1        1          20             0 
       113     -6     498.428             0    1        0        1        1        1          20             0 
       114     -6     498.516             0    1        0        1        1        1          20             0 
       115     -6     498.603             0    1        0        1        1        1          20             0 
       116     -6      498.69             0    1        0        1        1        1          20             0 
       117     -6     498.777             0    1        0        1        1        1          20             0 
       118     -6     498.865             0    1        0        1        1        1          20             0 
       119     -6     498.952             0    1        0        1        1        1          20             0 
       120     -6     499.039             0    1        0        1        1        1          20             0 
       121     -6     499.127             0    1        0        1        1        1          20             0 
       122     -6     499.214             0    1        0        1        1        1          20             0 
       123     -6     499.301             0    1        0        1        1        1          20             0 
       124     -6     499.389             0    1        0        1        1        1          20             0 
       125     -6     499.476             0    1        0        1        1        1          20             0 
       126     -6     499.563             0    1        0        1        1        1          20             0 
       127     -6     499.651             0    1        0        1        1        1          20             0 
       128     -6     499.738             0    1        0        1        1        1          20             0 
       129     -6     499.825             0    1        0        1        1        1          20             0 
       130     -6     499.913             0    1        0        1        1        1          20             0 
       131      0       497.4             0    1        0        1        1        1          20             0 
       132      0     496.151             0    1        0        1        1        1          20             0 
       133      0     494.805             0    1        0        1        1        1          20             0 
       134      0     493.741             0    1        0        1        1        1          20             0 
       135      0     491.091             0    1        0        1        1        1          20             0 
       136      0     488.758             0    1        0        1        1        1          20             0 
       137      0     486.225             0    1        0        1        1        1          20             0 
       138      0     486.041             0    1        0        1        1        1          20             0 
       139      0     483.261             0    1        0        1        1        1          20             0 
       140      0     480.553             0    1        0        1        1        1          20             0 
       141      0     475.782             0    1        0        1        1        1          20             0 
       142      0     471.385             0    1        0        1        1        1          20             0 
       143      0      468.03             0    1        0        1        1        1          20             0 
       144      0     466.096             0    1        0        1        1        1          20             0 
       145      0     464.826             0    1        0        1        1        1          20             0 
       146      0     460.884             0    1        0        1        1        1          20             0 
       147      0     460.052             0    1        0        1        1        1          20             0 
       148      0     455.844             0    1        0        1        1        1          20             0 
       149      0     454.118             0    1        0        1        1        1          20             0 
       150      0      450.86             0    1        0        1        1        1          20             0 
       151      0     448.696             0    1        0        1        1        1          20             0 
       152      0     445.978             0    1        0        1        1        1          20             0 
       153      0     440.113             0    1        0        1        1        1          20             0 
       154      0     436.545             0    1        0        1        1        1          20             0 
       155      0     434.071             0    1        0        1        1        1          20             0 
       156      0     432.088             0    1        0        1        1        1          20             0 
       157      0     430.779             0    1        0        1        1        1          20             0 
       158      0     427.352             0    1        0        1        1        1          20             0 
       159      0     429.485             0    1        0        1        1        1          20             0 
       160      0     426.282             0    1        0        1        1        1          20             0 
       161      0     424.614             0    1        0        1        1        1          20             0 
       162      0     423.696             0    1        0        1        1        1          20             0 
       163      0     422.465             0    1        0        1        1        1          20             0 
       164      0     421.937             0    1        0        1        1        1          20             0 
       165      0     421.048             0    1        0        1        1        1          20             0 
       166      0     421.186             0    1        0        1        1        1          20             0 
       167      0     421.797             0    1        0        1        1        1          20             0 
       168      0      421.61             0    1        0        1        1        1          20             0 
       169      0     422.019             0    1        0        1        1        1          20             0 
       170      0     424.442             0    1        0        1        1        1          20             0 
       171      0     421.561             0    1        0        1        1        1          20             0 
       172      0     424.074             0    1        0        1        1        1          20             0 
       173      0     425.594             0    1        0        1        1        1          20             0 
       174      0     427.095             0    1        0        1        1        1          20             0 
       175      0     430.833             0    1        0        1        1        1          20             0 
       176      0     426.952             0    1        0        1        1        1          20             0 
       177      0      426.42             0    1        0        1        1        1          20             0 
       178      0     422.877             0    1        0        1        1        1          20             0 
       179      0     427.898             0    1        0        1        1        1          20             0 
       180      0     423.898             0    1        0        1        1        1          20             0 
       181      0     422.997             0    1        0        1        1        1          20             0 
       182      0      422.36             0    1        0        1        1        1          20             0 
       183      0     421.399             0    1        0        1        1        1          20             0 
       184      0      421.81             0    1        0        1        1        1          20             0 
       185      0     419.853             0    1        0        1        1        1          20             0 
       186      0     419.128             0    1        0        1        1        1          20             0 
       187      0     420.514             0    1        0        1        1        1          20             0 
       188      0     423.316             0    1        0        1        1        1          20             0 
       189      0     424.452             0    1        0        1        1        1          20             0 
       190      0     425.246             0    1        0        1        1        1          20             0 
       191      0     426.664             0    1        0        1        1        1          20             0 
       192      0      429.54             0    1        0        1        1        1          20             0 
       193      0     431.572             0    1        0        1        1        1          20             0 
       194      0      430.22             0    1        0        1        1        1          20             0 
       195      0     433.073             0    1        0        1        1        1          20             0 
       196      0     437.658             0    1        0        1        1        1          20             0 
       197      0     442.651             0    1        0        1        1        1          20             0 
       198      0     445.774             0    1        0        1        1        1          20             0 
       199      0     448.245             0    1        0        1        1        1          20             0 
       200      0     450.929             0    1        0        1        1        1          20             0 
       201      0     453.089             0    1        0        1        1        1          20             0 
       202      0      456.42             0    1        0        1        1        1          20             0 
       203      0     457.892             0    1        0        1        1        1          20             0 
       204      0     461.337             0    1        0        1        1        1          20             0 
       205      0     462.599             0    1        0        1        1        1          20             0 
       206      0     469.138             0    1        0        1        1        1          20             0 
       207      0     470.013             0    1        0        1        1        1          20             0 
       208      0     474.077             0    1        0        1        1        1          20             0 
       209      0     478.798             0    1        0        1        1        1          20             0 
       210      0     483.142             0    1        0        1        1        1          20             0 
       211      0     485.581             0    1        0        1        1        1          20             0 
       212      0     485.934             0    1        0        1        1        1          20             0 
       213      0     487.611             0    1        0        1        1        1          20             0 
       214      0      490.31             0    1        0        1        1        1          20             0 
       215      0     490.448             0    1        0        1        1        1          20             0 
       216      0     492.315             0    1        0        1        1        1          20             0 
       217      0     492.779             0    1        0        1        1        1          20             0 
       218      0     495.323             0    1        0        1        1        1          20             0 
       219      0     496.678             0    1        0        1        1        1          20             0 
       220      0     496.281             0    1        0        1        1        1          20             0 
       221      0     495.164             0    1        0        1        1        1          20             0 
       222      0     494.705             0    1        0        1        1        1          20             0 
       223      0     493.787             0    1        0        1        1        1          20             0 
       224      0     493.381             0    1        0        1        1        1          20             0 
       225      0     490.854             0    1        0        1        1        1          20             0 
       226      0     494.217             0    1        0        1        1        1          20             0 
       227      0     489.069             0    1        0        1        1        1          20             0 
       228      0     493.105             0    1        0        1        1        1          20             0 
       229      0     488.957             0    1        0        1        1        1          20             0 
       230      0     494.779             0    1        0        1        1        1          20             0 
       231      0     496.301             0    1        0        1        1        1          20             0 
       232      0     493.172             0    1        0        1        1        1          20             0 
       233      0     495.956             0    1        0        1        1        1          20             0 
       234      0     496.996             0    1        0        1        1        1          20             0 
       235      0     496.804             0    1        0        1        1        1          20             0 
       236      0     498.139             0    1        0        1        1        1          20             0 
       237      0     498.569             0    1        0        1        1        1          20             0 
       238      0      498.81             0    1        0        1        1        1          20             0 
       239      0     483.033             0    1        0        1        1        1          20             0 
       240      0     435.712             0    1        0        1        1        1          20             0 
       241      0     492.503             0    1        0        1        1        1          20             0 
       242      0     490.897             0    1        0        1        1        1          20             0 
       243      0     489.016             0    1        0        1        1        1          20             0 
       244      0     487.072             0    1        0        1        1        1          20             0 
       245      0     485.319             0    1        0        1        1        1          20             0 
       246      0     483.714             0    1        0        1        1        1          20             0 
       247      0     481.655             0    1        0        1        1        1          20             0 
       248      0     480.022             0    1        0        1        1        1          20             0 
       249      0     477.262             0    1        0        1        1        1          20             0 
       250      0     473.639             0    1        0        1        1        1          20             0 
       251      0     469.828             0    1        0        1        1        1          20             0 
       252      0     471.309             0    1        0        1        1        1          20             0 
       253      0      464.83             0    1        0        1        1        1          20             0 
       254      0     463.985             0    1        0        1        1        1          20             0 
       255      0     461.597             0    1        0        1        1        1          20             0 
       256      0      457.45             0    1        0        1        1        1          20             0 
       257      0     455.441             0    1        0        1        1        1          20             0 
       258      0      455.96             0    1        0        1        1        1          20             0 
       259      0     453.704             0    1        0        1        1        1          20             0 
       260      0     449.177             0    1        0        1        1        1          20             0 
       261      0     445.476             0    1        0        1        1        1          20             0 
       262      0     445.787             0    1        0        1        1        1          20             0 
       263      0     441.442             0    1        0        1        1        1          20             0 
       264      0     436.917             0    1        0        1        1        1          20             0 
       265      0     435.025             0    1        0        1        1        1          20             0 