Pcp_File_Version=4
*** BLOCK J: BOUNDARY INFORMATION *********************************************
    NumBP     NObs  SeepF  FreeD DrainF  qQWLF
      198        0      f      t      f      f
 Interp H/Flux H/Flx1  Atm/H Seep/H Atm/WL Atm/SF   Snow
      f      f      f      f      f      f      f      f
Gradient SubDrip SurfDrip SeepFace TriggIrrig
      f      f      f      f        f          f      f      f
Node Number Array
      2       3       4       5       6       7       8       9      10      11 
     12      13      14      15      16      17      18      19      20      21 
     22      23      24      25      26      27      28      29      30      31 
     32      33      34      35      36      37      38      39      40      41 
     42      43      44      45      46      47      48      49      50      51 
     52      53      54      55      56      57      58      59      60      61 
     62      63      64      65      66      67      68      69      70      71 
     72      73      74      75      76      77      78      79      80      81 
     82      83      84      85      86      87      88      89      90      91 
     92      93      94      95      96      97      98      99     100   10102 
  10103   10104   10105   10106   10107   10108   10109   10110   10111   10112 
  10113   10114   10115   10116   10117   10118   10119   10120   10121   10122 
  10123   10124   10125   10126   10127   10128   10129   10130   10131   10132 
  10133   10134   10135   10136   10137   10138   10139   10140   10141   10142 
  10143   10144   10145   10146   10147   10148   10149   10150   10151   10152 
  10153   10154   10155   10156   10157   10158   10159   10160   10161   10162 
  10163   10164   10165   10166   10167   10168   10169   10170   10171   10172 
  10173   10174   10175   10176   10177   10178   10179   10180   10181   10182 
  10183   10184   10185   10186   10187   10188   10189   10190   10191   10192 
  10193   10194   10195   10196   10197   10198   10199   10200 
Width Array
  0.375    0.75    0.75    0.75    0.75    0.75    0.75    0.75    0.75    0.75 
   0.75    0.75    0.75    0.75    0.75    0.75    0.75    0.75    0.75    0.75 
   0.75    0.75    0.75    0.75    0.75    0.75    0.75    0.75    0.75    0.75 
   0.75    0.75    0.75    0.75    0.75    0.75    0.75    0.75    0.75    0.75 
   0.75    0.75    0.75    0.75    0.75    0.75    0.75    0.75    0.75    0.75 
   0.75    0.75    0.75    0.75    0.75    0.75    0.75    0.75    0.75    0.75 
   0.75    0.75    0.75    0.75    0.75    0.75    0.75    0.75    0.75    0.75 
   0.75    0.75    0.75    0.75    0.75    0.75    0.75    0.75    0.75    0.75 
   0.75    0.75    0.75    0.75    0.75    0.75    0.75    0.75    0.75    0.75 
   0.75    0.75    0.75    0.75    0.75    0.75    0.75    0.75   0.375   0.375 
   0.75    0.75    0.75    0.75    0.75    0.75    0.75    0.75    0.75    0.75 
   0.75    0.75    0.75    0.75    0.75    0.75    0.75    0.75    0.75    0.75 
   0.75    0.75    0.75    0.75    0.75    0.75    0.75    0.75    0.75    0.75 
   0.75    0.75    0.75    0.75    0.75    0.75    0.75    0.75    0.75    0.75 
   0.75    0.75    0.75    0.75    0.75    0.75    0.75    0.75    0.75    0.75 
   0.75    0.75    0.75    0.75    0.75    0.75    0.75    0.75    0.75    0.75 
   0.75    0.75    0.75    0.75    0.75    0.75    0.75    0.75    0.75    0.75 
   0.75    0.75    0.75    0.75    0.75    0.75    0.75    0.75    0.75    0.75 
   0.75    0.75    0.75    0.75    0.75    0.75    0.75    0.75    0.75    0.75 
   0.75    0.75    0.75    0.75    0.75    0.75    0.75   0.375 
Length of soil surface associated with transpiration
              0
Number of Flowing points and their indeces
    0
*** BLOCK J-D: Solute transport boundary conditions *****************************
KodCB(1),KodCB(2),.....,KodCB(NumBP)
 -1  -1  -1  -1  -1  -1  -1  -1  -1  -1  -1  -1  -1  -1  -1  -1  -1  -1  -1  -1 
 -1  -1  -1  -1  -1  -1  -1  -1  -1  -1  -1  -1  -1  -1  -1  -1  -1  -1  -1  -1 
 -1  -1  -1  -1  -1  -1  -1  -1  -1  -1  -1  -1  -1  -1  -1  -1  -1  -1  -1  -1 
 -1  -1  -1  -1  -1  -1  -1  -1  -1  -1  -1  -1  -1  -1  -1  -1  -1  -1  -1  -1 
 -1  -1  -1  -1  -1  -1  -1  -1  -1  -1  -1  -1  -1  -1  -1  -1  -1  -1  -1  -1 
 -1  -1  -1  -1  -1  -1  -1  -1  -1  -1  -1  -1  -1  -1  -1  -1  -1  -1  -1  -1 
 -1  -1  -1  -1  -1  -1  -1  -1  -1  -1  -1  -1  -1  -1  -1  -1  -1  -1  -1  -1 
 -1  -1  -1  -1  -1  -1  -1  -1  -1  -1  -1  -1  -1  -1  -1  -1  -1  -1  -1  -1 
 -1  -1  -1  -1  -1  -1  -1  -1  -1  -1  -1  -1  -1  -1  -1  -1  -1  -1  -1  -1 
 -1  -1  -1  -1  -1  -1  -1  -1  -1  -1  -1  -1  -1  -1  -1  -1  -1  -1 
*** End of input file 'BOUNDARY.IN' *******************************************
